15
H6 Pb1 C4 O4
C 0.940100 0.017430 0.059750
C 2.433620 -0.010440 0.075090
O 2.986870 1.063920 -0.516080
O 3.127830 -0.889310 0.558690
H 0.574790 0.920870 -0.437360
H 0.567730 0.013270 1.086990
H 0.567730 -0.852550 -0.486490
C 6.603186 -1.556603 -1.708659
C 7.077166 -0.861590 -0.474190
O 8.251417 -0.227537 -0.644278
O 6.500231 -0.839180 0.600450
H 7.312766 -1.415291 -2.529209
H 5.638672 -1.140916 -2.010016
H 6.513729 -2.627177 -1.509230
Pb 4.058602 -0.888978 -1.689607